# Packages
 &PACKAGES
 usePTRACERS=.FALSE.
 usediagnostics=.TRUE.
 uselayers=.FALSE.
 useOBCS=.FALSE.
 useKPP=.FALSE.
 &
